taxonomy_feeders/R2-12.47-2.glm
 // $Id: R2-12.47-2.glm
 // 12.47 kV feeder
 //*********************************************
 clock{
      timestamp '2000-01-01 0:00:00';
      stoptime '2000-01-01 1:00:00';
      timezone EST+8EDT;
 }

 #set profiler=1
 //*********************************************
 // modules
 module tape;
 module powerflow{
      solver_method NR;
      default_maximum_voltage_error 1e-6;
 };

 //*********************************************
 object regulator:1615 {
      name R2-12-47-2_reg_1;
      from R2-12-47-2_node_253;
      to R2-12-47-2_meter_9;
      phases ABCN;
      configuration regulator_configuration:1616;
      object recorder {
           property tap_A,tap_B,tap_C,power_in_A.real,power_in_A.imag,power_in_B.real,power_in_B.imag,power_in_C.real,power_in_C.imag,power_in.real,power_in.imag;
           limit 1440;
           interval 60;
           file "R2-12.27-2_reg_output.csv";
      };
 }

 object regulator_configuration:1616 {
      name feeder_reg_cfg;
      Control OUTPUT_VOLTAGE;
      band_center 7500.0;
      band_width 120;
      connect_type WYE_WYE;
      time_delay 30;
      raise_taps 16;
      lower_taps 16;
      regulation 0.10;
      tap_pos_A 0;
      tap_pos_B 0;
      tap_pos_C 0;
 }

 object capacitor:1610 {
      name R2-12-47-2_cap_1;
      phases ABCN;
      pt_phase C;
      parent R2-12-47-2_node_6;
      phases_connected ABC;
      control VOLT;
      voltage_set_high 7300;
      voltage_set_low 7100;
      capacitor_A 0.4 MVAr;
      capacitor_B 0.4 MVAr;
      capacitor_C 0.4 MVAr;
      control_level INDIVIDUAL;
      time_delay 30.0;
      dwell_time 30.0;
      cap_nominal_voltage 7200;
      nominal_voltage 7200;
      object recorder {
           property "switchA,switchB,switchC,voltage_A.real,voltage_A.imag,voltage_B.real,voltage_B.imag,voltage_C.real,voltage_C.imag";
           file R2-12.47-2_capacitor1.csv;
           interval 60;
           limit 1440;
      };
 }

 object capacitor:1611 {
      name R2-12-47-2_cap_2;
      phases ABCN;
      pt_phase C;
      parent R2-12-47-2_node_90;
      phases_connected ABC;
      control VOLT;
      voltage_set_high 7300;
      voltage_set_low 7100;
      capacitor_A 0.3 MVAr;
      capacitor_B 0.3 MVAr;
      capacitor_C 0.3 MVAr;
      control_level INDIVIDUAL;
      time_delay 30.0;
      dwell_time 30.0;
      cap_nominal_voltage 7200;
      nominal_voltage 7200;
      object recorder {
           property "switchA,switchB,switchC,voltage_A.real,voltage_A.imag,voltage_B.real,voltage_B.imag,voltage_C.real,voltage_C.imag";
           file R2-12.47-2_capacitor2.csv;
           interval 60;
           limit 1440;
      };
 }

 object capacitor:1612 {
      name R2-12-47-2_cap_3;
      phases ABCN;
      pt_phase C;
      parent R2-12-47-2_node_7;
      phases_connected ABC;
      control VOLT;
      voltage_set_high 7300;
      voltage_set_low 7100;
      capacitor_A 0.4 MVAr;
      capacitor_B 0.4 MVAr;
      capacitor_C 0.4 MVAr;
      control_level INDIVIDUAL;
      time_delay 30.0;
      dwell_time 30.0;
      cap_nominal_voltage 7200;
      nominal_voltage 7200;
      object recorder {
           property "switchA,switchB,switchC,voltage_A.real,voltage_A.imag,voltage_B.real,voltage_B.imag,voltage_C.real,voltage_C.imag";
           file R2-12.47-2_capacitor3.csv;
           interval 60;
           limit 1440;
      };
 }

 object capacitor:1613 {
      name R2-12-47-2_cap_4;
      phases ABCN;
      pt_phase C;
      parent R2-12-47-2_node_59;
      phases_connected ABC;
      control VOLT;
      voltage_set_high 7300;
      voltage_set_low 7100;
      capacitor_A 0.4 MVAr;
      capacitor_B 0.4 MVAr;
      capacitor_C 0.4 MVAr;
      control_level INDIVIDUAL;
      time_delay 30.0;
      dwell_time 30.0;
      cap_nominal_voltage 7200;
      nominal_voltage 7200;
      object recorder {
           property "switchA,switchB,switchC,voltage_A.real,voltage_A.imag,voltage_B.real,voltage_B.imag,voltage_C.real,voltage_C.imag";
           file R2-12.47-2_capacitor4.csv;
           interval 60;
           limit 1440;
      };
 }

 object fuse:1547 {
      name R2-12-47-2_fuse_1;
      phases AN;
      from R2-12-47-2_node_1;
      to R2-12-47-2_node_246;
      current_limit 100;
      status CLOSED;
 }

 object fuse:1548 {
      name R2-12-47-2_fuse_2;
      phases BN;
      from R2-12-47-2_node_8;
      to R2-12-47-2_node_100;
      current_limit 100;
      status CLOSED;
 }

 object fuse:1549 {
      name R2-12-47-2_fuse_3;
      phases CN;
      from R2-12-47-2_node_11;
      to R2-12-47-2_node_98;
      current_limit 100;
      status CLOSED;
 }

 object fuse:1550 {
      name R2-12-47-2_fuse_4;
      phases CN;
      from R2-12-47-2_node_12;
      to R2-12-47-2_node_99;
      current_limit 100;
      status CLOSED;
 }

 object fuse:1551 {
      name R2-12-47-2_fuse_5;
      phases BN;
      from R2-12-47-2_node_13;
      to R2-12-47-2_node_101;
      current_limit 50;
      status CLOSED;
 }

 object fuse:1552 {
      name R2-12-47-2_fuse_6;
      phases BCN;
      from R2-12-47-2_node_15;
      to R2-12-47-2_node_248;
      current_limit 125;
      status CLOSED;
 }

 object fuse:1553 {
      name R2-12-47-2_fuse_7;
      phases AN;
      from R2-12-47-2_node_16;
      to R2-12-47-2_node_113;
      current_limit 100;
      status CLOSED;
 }

 object fuse:1554 {
      name R2-12-47-2_fuse_8;
      phases ABCN;
      from R2-12-47-2_node_17;
      to R2-12-47-2_node_9;
      current_limit 100;
      status CLOSED;
 }

 object fuse:1555 {
      name R2-12-47-2_fuse_9;
      phases ABCN;
      from R2-12-47-2_node_19;
      to R2-12-47-2_node_18;
      current_limit 50;
      status CLOSED;
 }

 object fuse:1556 {
      name R2-12-47-2_fuse_10;
      phases AN;
      from R2-12-47-2_node_23;
      to R2-12-47-2_node_109;
      current_limit 50;
      status CLOSED;
 }

 object fuse:1557 {
      name R2-12-47-2_fuse_11;
      phases AN;
      from R2-12-47-2_node_24;
      to R2-12-47-2_node_21;
      current_limit 80;
      status CLOSED;
 }

 object fuse:1558 {
      name R2-12-47-2_fuse_12;
      phases CN;
      from R2-12-47-2_node_28;
      to R2-12-47-2_node_29;
      current_limit 100;
      status CLOSED;
 }

 object fuse:1559 {
      name R2-12-47-2_fuse_13;
      phases AN;
      from R2-12-47-2_node_32;
      to R2-12-47-2_node_154;
      current_limit 50;
      status CLOSED;
 }

 object fuse:1560 {
      name R2-12-47-2_fuse_14;
      phases ABN;
      from R2-12-47-2_node_33;
      to R2-12-47-2_node_30;
      current_limit 100;
      status CLOSED;
 }

 object fuse:1561 {
      name R2-12-47-2_fuse_15;
      phases ABCN;
      from R2-12-47-2_node_36;
      to R2-12-47-2_node_102;
      current_limit 100;
      status CLOSED;
 }

 object fuse:1562 {
      name R2-12-47-2_fuse_16;
      phases AN;
      from R2-12-47-2_node_37;
      to R2-12-47-2_node_132;
      current_limit 100;
      status CLOSED;
 }

 object fuse:1563 {
      name R2-12-47-2_fuse_17;
      phases AN;
      from R2-12-47-2_node_39;
      to R2-12-47-2_node_131;
      current_limit 100;
      status CLOSED;
 }

 object fuse:1564 {
      name R2-12-47-2_fuse_18;
      phases CN;
      from R2-12-47-2_node_40;
      to R2-12-47-2_node_229;
      current_limit 80;
      status CLOSED;
 }

 object fuse:1565 {
      name R2-12-47-2_fuse_19;
      phases ACN;
      from R2-12-47-2_node_42;
      to R2-12-47-2_node_67;
      current_limit 80;
      status CLOSED;
 }

 object fuse:1566 {
      name R2-12-47-2_fuse_20;
      phases ABCN;
      from R2-12-47-2_node_42;
      to R2-12-47-2_node_103;
      current_limit 80;
      status CLOSED;
 }

 object fuse:1567 {
      name R2-12-47-2_fuse_21;
      phases CN;
      from R2-12-47-2_node_44;
      to R2-12-47-2_node_50;
      current_limit 65;
      status CLOSED;
 }

 object fuse:1568 {
      name R2-12-47-2_fuse_22;
      phases CN;
      from R2-12-47-2_node_46;
      to R2-12-47-2_node_49;
      current_limit 80;
      status CLOSED;
 }

 object fuse:1569 {
      name R2-12-47-2_fuse_23;
      phases BN;
      from R2-12-47-2_node_47;
      to R2-12-47-2_node_207;
      current_limit 100;
      status CLOSED;
 }

 object fuse:1570 {
      name R2-12-47-2_fuse_24;
      phases BN;
      from R2-12-47-2_node_48;
      to R2-12-47-2_node_211;
      current_limit 65;
      status CLOSED;
 }

 object fuse:1571 {
      name R2-12-47-2_fuse_25;
      phases BN;
      from R2-12-47-2_node_54;
      to R2-12-47-2_node_231;
      current_limit 80;
      status CLOSED;
 }

 object fuse:1572 {
      name R2-12-47-2_fuse_26;
      phases BN;
      from R2-12-47-2_node_55;
      to R2-12-47-2_node_228;
      current_limit 80;
      status CLOSED;
 }

 object fuse:1573 {
      name R2-12-47-2_fuse_27;
      phases BN;
      from R2-12-47-2_node_56;
      to R2-12-47-2_node_55;
      current_limit 150;
      status CLOSED;
 }

 object fuse:1574 {
      name R2-12-47-2_fuse_28;
      phases ABCN;
      from R2-12-47-2_node_57;
      to R2-12-47-2_node_63;
      current_limit 150;
      status CLOSED;
 }

 object fuse:1575 {
      name R2-12-47-2_fuse_29;
      phases BN;
      from R2-12-47-2_node_62;
      to R2-12-47-2_node_226;
      current_limit 100;
      status CLOSED;
 }

 object fuse:1576 {
      name R2-12-47-2_fuse_30;
      phases CN;
      from R2-12-47-2_node_64;
      to R2-12-47-2_node_225;
      current_limit 80;
      status CLOSED;
 }

 object fuse:1577 {
      name R2-12-47-2_fuse_31;
      phases CN;
      from R2-12-47-2_node_65;
      to R2-12-47-2_node_66;
      current_limit 80;
      status CLOSED;
 }

 object fuse:1578 {
      name R2-12-47-2_fuse_32;
      phases AN;
      from R2-12-47-2_node_68;
      to R2-12-47-2_node_205;
      current_limit 80;
      status CLOSED;
 }

 object fuse:1579 {
      name R2-12-47-2_fuse_33;
      phases ABCN;
      from R2-12-47-2_node_69;
      to R2-12-47-2_node_183;
      current_limit 100;
      status CLOSED;
 }

 object fuse:1580 {
      name R2-12-47-2_fuse_34;
      phases CN;
      from R2-12-47-2_node_72;
      to R2-12-47-2_node_153;
      current_limit 100;
      status CLOSED;
 }

 object fuse:1581 {
      name R2-12-47-2_fuse_35;
      phases BN;
      from R2-12-47-2_node_72;
      to R2-12-47-2_node_155;
      current_limit 100;
      status CLOSED;
 }

 object fuse:1582 {
      name R2-12-47-2_fuse_36;
      phases AN;
      from R2-12-47-2_node_73;
      to R2-12-47-2_node_175;
      current_limit 100;
      status CLOSED;
 }

 object fuse:1583 {
      name R2-12-47-2_fuse_37;
      phases CN;
      from R2-12-47-2_node_74;
      to R2-12-47-2_node_177;
      current_limit 80;
      status CLOSED;
 }

 object fuse:1584 {
      name R2-12-47-2_fuse_38;
      phases BN;
      from R2-12-47-2_node_81;
      to R2-12-47-2_node_126;
      current_limit 65;
      status CLOSED;
 }

 object fuse:1585 {
      name R2-12-47-2_fuse_39;
      phases AN;
      from R2-12-47-2_node_87;
      to R2-12-47-2_node_201;
      current_limit 80;
      status CLOSED;
 }

 object fuse:1586 {
      name R2-12-47-2_fuse_40;
      phases CN;
      from R2-12-47-2_node_88;
      to R2-12-47-2_node_190;
      current_limit 80;
      status CLOSED;
 }

 object fuse:1587 {
      name R2-12-47-2_fuse_41;
      phases AN;
      from R2-12-47-2_node_88;
      to R2-12-47-2_node_195;
      current_limit 80;
      status CLOSED;
 }

 object fuse:1588 {
      name R2-12-47-2_fuse_42;
      phases BN;
      from R2-12-47-2_node_89;
      to R2-12-47-2_node_181;
      current_limit 80;
      status CLOSED;
 }

 object fuse:1589 {
      name R2-12-47-2_fuse_43;
      phases CN;
      from R2-12-47-2_node_90;
      to R2-12-47-2_node_166;
      current_limit 100;
      status CLOSED;
 }

 object fuse:1590 {
      name R2-12-47-2_fuse_44;
      phases CN;
      from R2-12-47-2_node_91;
      to R2-12-47-2_node_179;
      current_limit 100;
      status CLOSED;
 }

 object fuse:1591 {
      name R2-12-47-2_fuse_45;
      phases CN;
      from R2-12-47-2_node_91;
      to R2-12-47-2_node_185;
      current_limit 100;
      status CLOSED;
 }

 object fuse:1592 {
      name R2-12-47-2_fuse_46;
      phases BN;
      from R2-12-47-2_node_94;
      to R2-12-47-2_node_108;
      current_limit 50;
      status CLOSED;
 }

 object fuse:1593 {
      name R2-12-47-2_fuse_47;
      phases BN;
      from R2-12-47-2_node_244;
      to R2-12-47-2_node_97;
      current_limit 100;
      status CLOSED;
 }

 object fuse:1594 {
      name R2-12-47-2_fuse_48;
      phases BN;
      from R2-12-47-2_node_111;
      to R2-12-47-2_node_121;
      current_limit 100;
      status CLOSED;
 }

 object fuse:1595 {
      name R2-12-47-2_fuse_49;
      phases BN;
      from R2-12-47-2_node_112;
      to R2-12-47-2_node_35;
      current_limit 100;
      status CLOSED;
 }

 object fuse:1596 {
      name R2-12-47-2_fuse_50;
      phases ABCN;
      from R2-12-47-2_node_112;
      to R2-12-47-2_node_36;
      current_limit 150;
      status CLOSED;
 }

 object fuse:1597 {
      name R2-12-47-2_fuse_51;
      phases AN;
      from R2-12-47-2_node_146;
      to R2-12-47-2_node_174;
      current_limit 100;
      status CLOSED;
 }

 object line_configuration:24 {
      conductor_A overhead_line_conductor:2;
      conductor_N overhead_line_conductor:2;
      spacing line_spacing:17;
 }

 object line_configuration:25 {
      conductor_A overhead_line_conductor:3;
      conductor_B overhead_line_conductor:3;
      conductor_C overhead_line_conductor:3;
      conductor_N overhead_line_conductor:3;
      spacing line_spacing:18;
 }

 object line_configuration:26 {
      conductor_A overhead_line_conductor:4;
      conductor_N overhead_line_conductor:4;
      spacing line_spacing:17;
 }

 object line_configuration:27 {
      conductor_A overhead_line_conductor:5;
      conductor_N overhead_line_conductor:5;
      spacing line_spacing:17;
 }

 object line_configuration:28 {
      conductor_C overhead_line_conductor:2;
      conductor_N overhead_line_conductor:2;
      spacing line_spacing:19;
 }

 object line_configuration:29 {
      conductor_C overhead_line_conductor:2;
      conductor_N overhead_line_conductor:2;
      spacing line_spacing:19;
 }

 object line_configuration:30 {
      conductor_A overhead_line_conductor:6;
      conductor_B overhead_line_conductor:6;
      conductor_C overhead_line_conductor:6;
      conductor_N overhead_line_conductor:6;
      spacing line_spacing:18;
 }

 object line_configuration:31 {
      conductor_B underground_line_conductor:7;
      conductor_N underground_line_conductor:7;
      spacing line_spacing:20;
 }

 object line_configuration:32 {
      conductor_A overhead_line_conductor:8;
      conductor_B overhead_line_conductor:8;
      conductor_C overhead_line_conductor:8;
      conductor_N overhead_line_conductor:8;
      spacing line_spacing:18;
 }

 object line_configuration:33 {
      conductor_A underground_line_conductor:9;
      conductor_B underground_line_conductor:9;
      conductor_C underground_line_conductor:9;
      conductor_N underground_line_conductor:9;
      spacing line_spacing:18;
 }

 object line_configuration:34 {
      conductor_C underground_line_conductor:7;
      conductor_N underground_line_conductor:7;
      spacing line_spacing:19;
 }

 object line_configuration:35 {
      conductor_B overhead_line_conductor:2;
      conductor_N overhead_line_conductor:2;
      spacing line_spacing:20;
 }

 object line_configuration:36 {
      conductor_C overhead_line_conductor:4;
      conductor_N overhead_line_conductor:4;
      spacing line_spacing:19;
 }

 object line_configuration:37 {
      conductor_B overhead_line_conductor:2;
      conductor_C overhead_line_conductor:2;
      conductor_N overhead_line_conductor:2;
      spacing line_spacing:21;
 }

 object line_configuration:38 {
      conductor_A underground_line_conductor:7;
      conductor_B underground_line_conductor:7;
      conductor_C underground_line_conductor:7;
      conductor_N underground_line_conductor:7;
      spacing line_spacing:18;
 }

 object line_configuration:39 {
      conductor_A overhead_line_conductor:2;
      conductor_B overhead_line_conductor:2;
      conductor_C overhead_line_conductor:2;
      conductor_N overhead_line_conductor:2;
      spacing line_spacing:18;
 }

 object line_configuration:40 {
      conductor_A overhead_line_conductor:10;
      conductor_B overhead_line_conductor:10;
      conductor_C overhead_line_conductor:10;
      conductor_N overhead_line_conductor:10;
      spacing line_spacing:18;
 }

 object line_configuration:41 {
      conductor_A overhead_line_conductor:11;
      conductor_N overhead_line_conductor:11;
      spacing line_spacing:17;
 }

 object line_configuration:42 {
      conductor_A overhead_line_conductor:11;
      conductor_N overhead_line_conductor:11;
      spacing line_spacing:17;
 }

 object line_configuration:43 {
      conductor_B overhead_line_conductor:2;
      conductor_N overhead_line_conductor:2;
      spacing line_spacing:20;
 }

 object line_configuration:44 {
      conductor_A overhead_line_conductor:2;
      conductor_B overhead_line_conductor:2;
      conductor_N overhead_line_conductor:2;
      spacing line_spacing:22;
 }

 object line_configuration:45 {
      conductor_A overhead_line_conductor:12;
      conductor_B overhead_line_conductor:12;
      conductor_C overhead_line_conductor:12;
      conductor_N overhead_line_conductor:12;
      spacing line_spacing:18;
 }

 object line_configuration:46 {
      conductor_A overhead_line_conductor:12;
      conductor_B overhead_line_conductor:12;
      conductor_C overhead_line_conductor:12;
      conductor_N overhead_line_conductor:12;
      spacing line_spacing:18;
 }

 object line_configuration:47 {
      conductor_A overhead_line_conductor:11;
      conductor_C overhead_line_conductor:11;
      conductor_N overhead_line_conductor:11;
      spacing line_spacing:23;
 }

 object line_configuration:48 {
      conductor_C overhead_line_conductor:4;
      conductor_N overhead_line_conductor:4;
      spacing line_spacing:19;
 }

 object line_configuration:49 {
      conductor_C overhead_line_conductor:4;
      conductor_N overhead_line_conductor:4;
      spacing line_spacing:19;
 }

 object line_configuration:50 {
      conductor_B overhead_line_conductor:5;
      conductor_N overhead_line_conductor:5;
      spacing line_spacing:20;
 }

 object line_configuration:51 {
      conductor_B overhead_line_conductor:10;
      conductor_N overhead_line_conductor:10;
      spacing line_spacing:20;
 }

 object line_configuration:52 {
      conductor_A overhead_line_conductor:2;
      conductor_B overhead_line_conductor:2;
      conductor_C overhead_line_conductor:2;
      conductor_N overhead_line_conductor:2;
      spacing line_spacing:18;
 }

 object line_configuration:53 {
      conductor_A overhead_line_conductor:6;
      conductor_B overhead_line_conductor:6;
      conductor_C overhead_line_conductor:6;
      conductor_N overhead_line_conductor:6;
      spacing line_spacing:18;
 }

 object line_configuration:54 {
      conductor_A overhead_line_conductor:11;
      conductor_N overhead_line_conductor:11;
      spacing line_spacing:17;
 }

 object line_configuration:55 {
      conductor_A overhead_line_conductor:11;
      conductor_N overhead_line_conductor:11;
      spacing line_spacing:17;
 }

 object line_configuration:56 {
      conductor_B overhead_line_conductor:11;
      conductor_N overhead_line_conductor:11;
      spacing line_spacing:20;
 }

 object line_configuration:57 {
      conductor_A overhead_line_conductor:2;
      conductor_C overhead_line_conductor:2;
      conductor_N overhead_line_conductor:2;
      spacing line_spacing:23;
 }

 object line_configuration:58 {
      conductor_A overhead_line_conductor:5;
      conductor_B overhead_line_conductor:5;
      conductor_C overhead_line_conductor:5;
      conductor_N overhead_line_conductor:5;
      spacing line_spacing:18;
 }

 object line_configuration:59 {
      conductor_B overhead_line_conductor:2;
      conductor_N overhead_line_conductor:2;
      spacing line_spacing:20;
 }

 object line_configuration:60 {
      conductor_C underground_line_conductor:13;
      conductor_N underground_line_conductor:13;
      spacing line_spacing:19;
 }

 object line_configuration:61 {
      conductor_B overhead_line_conductor:4;
      conductor_N overhead_line_conductor:4;
      spacing line_spacing:20;
 }

 object line_configuration:62 {
      conductor_A overhead_line_conductor:2;
      conductor_N overhead_line_conductor:2;
      spacing line_spacing:17;
 }

 object line_configuration:63 {
      conductor_C overhead_line_conductor:5;
      conductor_N overhead_line_conductor:5;
      spacing line_spacing:19;
 }

 object line_configuration:64 {
      conductor_A overhead_line_conductor:4;
      conductor_N overhead_line_conductor:4;
      spacing line_spacing:17;
 }

 object line_spacing:17 {
      distance_AN 0.0 in;
 }

 object line_spacing:18 {
      distance_AB 0.0 in;
      distance_BC 0.0 in;
      distance_AC 0.0 in;
      distance_AN 0.0 in;
      distance_BN 0.0 in;
      distance_CN 0.0 in;
 }

 object line_spacing:19 {
      distance_CN 0.0 in;
 }

 object line_spacing:20 {
      distance_BN 0.0 in;
 }

 object line_spacing:21 {
      distance_BC 0.0 in;
      distance_BN 0.0 in;
      distance_CN 0.0 in;
 }

 object line_spacing:22 {
      distance_AB 0.0 in;
      distance_AN 0.0 in;
      distance_BN 0.0 in;
 }

 object line_spacing:23 {
      distance_AC 0.0 in;
      distance_AN 0.0 in;
      distance_CN 0.0 in;
 }

 object load:317 {
      name R2-12-47-2_load_1;
      parent R2-12-47-2_meter_1;
      phases ABCN;
      voltage_A 7200+0.0j;
      voltage_B -3600-6235j;
      voltage_C -3600+6235j;
      constant_power_A 99926.9135+81191.9711j;
      constant_power_B 90146.6773+69095.8558j;
      constant_power_C 88901.8571+63581.1158j;
      nominal_voltage 7200;
      load_class C;
 }

 object load:318 {
      name R2-12-47-2_load_2;
      parent R2-12-47-2_meter_2;
      phases ABCN;
      voltage_A 7200+0.0j;
      voltage_B -3600-6235j;
      voltage_C -3600+6235j;
      constant_power_A 59954.949+48714.2084j;
      constant_power_B 54086.9246+41456.6844j;
      constant_power_C 53340.0474+38147.9066j;
      nominal_voltage 7200;
      load_class C;
 }

 object load:319 {
      name R2-12-47-2_load_3;
      parent R2-12-47-2_meter_3;
      phases ABCN;
      voltage_A 7200+0.0j;
      voltage_B -3600-6235j;
      voltage_C -3600+6235j;
      constant_power_A 8993.2424+7307.1313j;
      constant_power_B 13521.7312+10364.1711j;
      constant_power_C 8001.0071+5722.186j;
      nominal_voltage 7200;
      load_class C;
 }

 object load:320 {
      name R2-12-47-2_load_4;
      parent R2-12-47-2_meter_4;
      phases ABCN;
      voltage_A 7200+0.0j;
      voltage_B -3600-6235j;
      voltage_C -3600+6235j;
      constant_power_A 29977.4745+24357.1042j;
      constant_power_B 27043.4623+20728.3422j;
      constant_power_C 26670.0237+19073.9533j;
      nominal_voltage 7200;
      load_class C;
 }

 object load:321 {
      name R2-12-47-2_load_5;
      parent R2-12-47-2_meter_5;
      phases ABCN;
      voltage_A 7200+0.0j;
      voltage_B -3600-6235j;
      voltage_C -3600+6235j;
      constant_power_A 29977.4745+24357.1042j;
      constant_power_B 27043.4623+20728.3422j;
      constant_power_C 26670.0237+19073.9533j;
      nominal_voltage 7200;
      load_class C;
 }

 object load:322 {
      name R2-12-47-2_load_6;
      parent R2-12-47-2_meter_6;
      phases CN;
      voltage_C -3600+6235j;
      constant_power_C 26670.0237+19073.9533j;
      nominal_voltage 7200;
      load_class C;
 }

 object load:323 {
      name R2-12-47-2_load_7;
      parent R2-12-47-2_meter_7;
      phases ABCN;
      voltage_A 7200+0.0j;
      voltage_B -3600-6235j;
      voltage_C -3600+6235j;
      constant_power_A 14988.7373+12178.5521j;
      constant_power_B 27043.4623+20728.3422j;
      constant_power_C 13335.0119+9536.9766j;
      nominal_voltage 7200;
      load_class C;
 }

 object load:324 {
      name R2-12-47-2_load_8;
      parent R2-12-47-2_meter_8;
      phases ABCN;
      voltage_A 7200+0.0j;
      voltage_B -3600-6235j;
      voltage_C -3600+6235j;
      constant_power_A 80939.1812+65764.1813j;
      constant_power_B 73017.3483+55966.5239j;
      constant_power_C 72009.064+51499.6738j;
      nominal_voltage 7200;
      load_class C;
 }

 object meter:901 {
      name R2-12-47-2_meter_1;
      phases ABCN;
      voltage_A 7200+0.0j;
      voltage_B -3600-6235j;
      voltage_C -3600+6235j;
      nominal_voltage 7200;
 }

 object meter:902 {
      name R2-12-47-2_meter_2;
      phases ABCN;
      voltage_A 7200+0.0j;
      voltage_B -3600-6235j;
      voltage_C -3600+6235j;
      nominal_voltage 7200;
 }

 object meter:903 {
      name R2-12-47-2_meter_3;
      phases ABCN;
      voltage_A 7200+0.0j;
      voltage_B -3600-6235j;
      voltage_C -3600+6235j;
      nominal_voltage 7200;
 }

 object meter:904 {
      name R2-12-47-2_meter_4;
      phases ABCN;
      voltage_A 7200+0.0j;
      voltage_B -3600-6235j;
      voltage_C -3600+6235j;
      nominal_voltage 7200;
 }

 object meter:905 {
      name R2-12-47-2_meter_5;
      phases ABCN;
      voltage_A 7200+0.0j;
      voltage_B -3600-6235j;
      voltage_C -3600+6235j;
      nominal_voltage 7200;
 }

 object meter:906 {
      name R2-12-47-2_meter_6;
      phases CN;
      voltage_C -3600+6235j;
      nominal_voltage 7200;
 }

 object meter:907 {
      name R2-12-47-2_meter_7;
      phases ABCN;
      voltage_A 7200+0.0j;
      voltage_B -3600-6235j;
      voltage_C -3600+6235j;
      nominal_voltage 7200;
 }

 object meter:908 {
      name R2-12-47-2_meter_8;
      phases ABCN;
      voltage_A 7200+0.0j;
      voltage_B -3600-6235j;
      voltage_C -3600+6235j;
      nominal_voltage 7200;
 }

 // Meter at feeder
 object meter:1614 {
      name R2-12-47-2_meter_9;
      phases ABCN;
      nominal_voltage 7200;
      voltage_A 7200+0.0j;
      voltage_B -3600-6235j;
      voltage_C -3600+6235j;
 }

 object node:65 {
      name R2-12-47-2_node_1;
      phases ABCN;
      voltage_A 7200+0.0j;
      voltage_B -3600-6235j;
      voltage_C -3600+6235j;
      nominal_voltage 7200;
 }

 object node:66 {
      name R2-12-47-2_node_2;
      phases ABCN;
      voltage_A 7200+0.0j;
      voltage_B -3600-6235j;
      voltage_C -3600+6235j;
      nominal_voltage 7200;
 }

 object node:67 {
      name R2-12-47-2_node_3;
      phases AN;
      voltage_A 7200+0.0j;
      nominal_voltage 7200;
 }

 object node:68 {
      name R2-12-47-2_node_4;
      phases AN;
      voltage_A 7200+0.0j;
      nominal_voltage 7200;
 }

 object node:69 {
      name R2-12-47-2_node_5;
      phases CN;
      voltage_C -3600+6235j;
      nominal_voltage 7200;
 }

 object node:70 {
      name R2-12-47-2_node_6;
      phases ABCN;
      voltage_A 7200+0.0j;
      voltage_B -3600-6235j;
      voltage_C -3600+6235j;
      nominal_voltage 7200;
 }

 object node:71 {
      name R2-12-47-2_node_7;
      phases ABCN;
      voltage_A 7200+0.0j;
      voltage_B -3600-6235j;
      voltage_C -3600+6235j;
      nominal_voltage 7200;
 }

 object node:72 {
      name R2-12-47-2_node_8;
      phases BN;
      voltage_B -3600-6235j;
      nominal_voltage 7200;
 }

 object node:73 {
      name R2-12-47-2_node_9;
      phases ABCN;
      voltage_A 7200+0.0j;
      voltage_B -3600-6235j;
      voltage_C -3600+6235j;
      nominal_voltage 7200;
 }

 object node:74 {
      name R2-12-47-2_node_10;
      phases ABCN;
      voltage_A 7200+0.0j;
      voltage_B -3600-6235j;
      voltage_C -3600+6235j;
      nominal_voltage 7200;
 }

 object node:75 {
      name R2-12-47-2_node_11;
      phases ABCN;
      voltage_A 7200+0.0j;
      voltage_B -3600-6235j;
      voltage_C -3600+6235j;
      nominal_voltage 7200;
 }

 object node:76 {
      name R2-12-47-2_node_12;
      phases CN;
      voltage_C -3600+6235j;
      nominal_voltage 7200;
 }

 object node:77 {
      name R2-12-47-2_node_13;
      phases BN;
      voltage_B -3600-6235j;
      nominal_voltage 7200;
 }

 object node:78 {
      name R2-12-47-2_node_14;
      phases BCN;
      voltage_B -3600-6235j;
      voltage_C -3600+6235j;
      nominal_voltage 7200;
 }

 object node:79 {
      name R2-12-47-2_node_15;
      phases ABCN;
      voltage_A 7200+0.0j;
      voltage_B -3600-6235j;
      voltage_C -3600+6235j;
      nominal_voltage 7200;
 }

 object node:80 {
      name R2-12-47-2_node_16;
      phases ABCN;
      voltage_A 7200+0.0j;
      voltage_B -3600-6235j;
      voltage_C -3600+6235j;
      nominal_voltage 7200;
 }

 object node:81 {
      name R2-12-47-2_node_17;
      phases ABCN;
      voltage_A 7200+0.0j;
      voltage_B -3600-6235j;
      voltage_C -3600+6235j;
      nominal_voltage 7200;
 }

 object node:82 {
      name R2-12-47-2_node_18;
      phases ABCN;
      voltage_A 7200+0.0j;
      voltage_B -3600-6235j;
      voltage_C -3600+6235j;
      nominal_voltage 7200;
 }

 object node:83 {
      name R2-12-47-2_node_19;
      phases ABCN;
      voltage_A 7200+0.0j;
      voltage_B -3600-6235j;
      voltage_C -3600+6235j;
      nominal_voltage 7200;
 }

 object node:84 {
      name R2-12-47-2_node_20;
      phases AN;
      voltage_A 7200+0.0j;
      nominal_voltage 7200;
 }

 object node:85 {
      name R2-12-47-2_node_21;
      phases AN;
      voltage_A 7200+0.0j;
      nominal_voltage 7200;
 }

 object node:86 {
      name R2-12-47-2_node_22;
      phases BN;
      voltage_B -3600-6235j;
      nominal_voltage 7200;
 }

 object node:87 {
      name R2-12-47-2_node_23;
      phases ABCN;
      voltage_A 7200+0.0j;
      voltage_B -3600-6235j;
      voltage_C -3600+6235j;
      nominal_voltage 7200;
 }

 object node:88 {
      name R2-12-47-2_node_24;
      phases ABCN;
      voltage_A 7200+0.0j;
      voltage_B -3600-6235j;
      voltage_C -3600+6235j;
      nominal_voltage 7200;
 }

 object node:89 {
      name R2-12-47-2_node_25;
      phases ABCN;
      voltage_A 7200+0.0j;
      voltage_B -3600-6235j;
      voltage_C -3600+6235j;
      nominal_voltage 7200;
 }

 object node:90 {
      name R2-12-47-2_node_26;
      phases ABCN;
      voltage_A 7200+0.0j;
      voltage_B -3600-6235j;
      voltage_C -3600+6235j;
      nominal_voltage 7200;
 }

 object node:91 {
      name R2-12-47-2_node_27;
      phases ABCN;
      voltage_A 7200+0.0j;
      voltage_B -3600-6235j;
      voltage_C -3600+6235j;
      nominal_voltage 7200;
 }

 object node:92 {
      name R2-12-47-2_node_28;
      phases ABCN;
      voltage_A 7200+0.0j;
      voltage_B -3600-6235j;
      voltage_C -3600+6235j;
      nominal_voltage 7200;
 }

 object node:93 {
      name R2-12-47-2_node_29;
      phases CN;
      voltage_C -3600+6235j;
      nominal_voltage 7200;
 }

 object node:94 {
      name R2-12-47-2_node_30;
      phases ABN;
      voltage_A 7200+0.0j;
      voltage_B -3600-6235j;
      nominal_voltage 7200;
 }

 object node:95 {
      name R2-12-47-2_node_31;
      phases BN;
      voltage_B -3600-6235j;
      nominal_voltage 7200;
 }

 object node:96 {
      name R2-12-47-2_node_32;
      phases AN;
      voltage_A 7200+0.0j;
      nominal_voltage 7200;
 }

 object node:97 {
      name R2-12-47-2_node_33;
      phases ABN;
      voltage_A 7200+0.0j;
      voltage_B -3600-6235j;
      nominal_voltage 7200;
 }

 object node:98 {
      name R2-12-47-2_node_34;
      phases ABCN;
      voltage_A 7200+0.0j;
      voltage_B -3600-6235j;
      voltage_C -3600+6235j;
      nominal_voltage 7200;
 }

 object node:99 {
      name R2-12-47-2_node_35;
      phases BN;
      voltage_B -3600-6235j;
      nominal_voltage 7200;
 }

 object node:100 {
      name R2-12-47-2_node_36;
      phases ABCN;
      voltage_A 7200+0.0j;
      voltage_B -3600-6235j;
      voltage_C -3600+6235j;
      nominal_voltage 7200;
 }

 object node:101 {
      name R2-12-47-2_node_37;
      phases ABCN;
      voltage_A 7200+0.0j;
      voltage_B -3600-6235j;
      voltage_C -3600+6235j;
      nominal_voltage 7200;
 }

 object node:102 {
      name R2-12-47-2_node_38;
      phases ABCN;
      voltage_A 7200+0.0j;
      voltage_B -3600-6235j;
      voltage_C -3600+6235j;
      nominal_voltage 7200;
 }

 object node:103 {
      name R2-12-47-2_node_39;
      phases ABCN;
      voltage_A 7200+0.0j;
      voltage_B -3600-6235j;
      voltage_C -3600+6235j;
      nominal_voltage 7200;
 }

 object node:104 {
      name R2-12-47-2_node_40;
      phases ABCN;
      voltage_A 7200+0.0j;
      voltage_B -3600-6235j;
      voltage_C -3600+6235j;
      nominal_voltage 7200;
 }

 object node:105 {
      name R2-12-47-2_node_41;
      phases ABCN;
      voltage_A 7200+0.0j;
      voltage_B -3600-6235j;
      voltage_C -3600+6235j;
      nominal_voltage 7200;
 }

 object node:106 {
      name R2-12-47-2_node_42;
      phases ABCN;
      voltage_A 7200+0.0j;
      voltage_B -3600-6235j;
      voltage_C -3600+6235j;
      nominal_voltage 7200;
 }

 object node:107 {
      name R2-12-47-2_node_43;
      phases ABCN;
      voltage_A 7200+0.0j;
      voltage_B -3600-6235j;
      voltage_C -3600+6235j;
      nominal_voltage 7200;
 }

 object node:108 {
      name R2-12-47-2_node_44;
      phases ABCN;
      voltage_A 7200+0.0j;
      voltage_B -3600-6235j;
      voltage_C -3600+6235j;
      nominal_voltage 7200;
 }

 object node:109 {
      name R2-12-47-2_node_45;
      phases ABCN;
      voltage_A 7200+0.0j;
      voltage_B -3600-6235j;
      voltage_C -3600+6235j;
      nominal_voltage 7200;
 }

 object node:110 {
      name R2-12-47-2_node_46;
      phases ABCN;
      voltage_A 7200+0.0j;
      voltage_B -3600-6235j;
      voltage_C -3600+6235j;
      nominal_voltage 7200;
 }

 object node:111 {
      name R2-12-47-2_node_47;
      phases ABCN;
      voltage_A 7200+0.0j;
      voltage_B -3600-6235j;
      voltage_C -3600+6235j;
      nominal_voltage 7200;
 }

 object node:112 {
      name R2-12-47-2_node_48;
      phases BN;
      voltage_B -3600-6235j;
      nominal_voltage 7200;
 }

 object node:113 {
      name R2-12-47-2_node_49;
      phases CN;
      voltage_C -3600+6235j;
      nominal_voltage 7200;
 }

 object node:114 {
      name R2-12-47-2_node_50;
      phases CN;
      voltage_C -3600+6235j;
      nominal_voltage 7200;
 }

 object node:115 {
      name R2-12-47-2_node_51;
      phases AN;
      voltage_A 7200+0.0j;
      nominal_voltage 7200;
 }

 object node:116 {
      name R2-12-47-2_node_52;
      phases ABCN;
      voltage_A 7200+0.0j;
      voltage_B -3600-6235j;
      voltage_C -3600+6235j;
      nominal_voltage 7200;
 }

 object node:117 {
      name R2-12-47-2_node_53;
      phases CN;
      voltage_C -3600+6235j;
      nominal_voltage 7200;
 }

 object node:118 {
      name R2-12-47-2_node_54;
      phases BN;
      voltage_B -3600-6235j;
      nominal_voltage 7200;
 }

 object node:119 {
      name R2-12-47-2_node_55;
      phases BN;
      voltage_B -3600-6235j;
      nominal_voltage 7200;
 }

 object node:120 {
      name R2-12-47-2_node_56;
      phases ABCN;
      voltage_A 7200+0.0j;
      voltage_B -3600-6235j;
      voltage_C -3600+6235j;
      nominal_voltage 7200;
 }

 object node:121 {
      name R2-12-47-2_node_57;
      phases ABCN;
      voltage_A 7200+0.0j;
      voltage_B -3600-6235j;
      voltage_C -3600+6235j;
      nominal_voltage 7200;
 }

 object node:122 {
      name R2-12-47-2_node_58;
      phases AN;
      voltage_A 7200+0.0j;
      nominal_voltage 7200;
 }

 object node:123 {
      name R2-12-47-2_node_59;
      phases ABCN;
      voltage_A 7200+0.0j;
      voltage_B -3600-6235j;
      voltage_C -3600+6235j;
      nominal_voltage 7200;
 }

 object node:124 {
      name R2-12-47-2_node_60;
      phases AN;
      voltage_A 7200+0.0j;
      nominal_voltage 7200;
 }

 object node:125 {
      name R2-12-47-2_node_61;
      phases AN;
      voltage_A 7200+0.0j;
      nominal_voltage 7200;
 }

 object node:126 {
      name R2-12-47-2_node_62;
      phases ABCN;
      voltage_A 7200+0.0j;
      voltage_B -3600-6235j;
      voltage_C -3600+6235j;
      nominal_voltage 7200;
 }

 object node:127 {
      name R2-12-47-2_node_63;
      phases ABCN;
      voltage_A 7200+0.0j;
      voltage_B -3600-6235j;
      voltage_C -3600+6235j;
      nominal_voltage 7200;
 }

 object node:128 {
      name R2-12-47-2_node_64;
      phases ABCN;
      voltage_A 7200+0.0j;
      voltage_B -3600-6235j;
      voltage_C -3600+6235j;
      nominal_voltage 7200;
 }

 object node:129 {
      name R2-12-47-2_node_65;
      phases ABCN;
      voltage_A 7200+0.0j;
      voltage_B -3600-6235j;
      voltage_C -3600+6235j;
      nominal_voltage 7200;
 }

 object node:130 {
      name R2-12-47-2_node_66;
      phases CN;
      voltage_C -3600+6235j;
      nominal_voltage 7200;
 }

 object node:131 {
      name R2-12-47-2_node_67;
      phases ACN;
      voltage_A 7200+0.0j;
      voltage_C -3600+6235j;
      nominal_voltage 7200;
 }

 object node:132 {
      name R2-12-47-2_node_68;
      phases ABCN;
      voltage_A 7200+0.0j;
      voltage_B -3600-6235j;
      voltage_C -3600+6235j;
      nominal_voltage 7200;
 }

 object node:133 {
      name R2-12-47-2_node_69;
      phases ABCN;
      voltage_A 7200+0.0j;
      voltage_B -3600-6235j;
      voltage_C -3600+6235j;
      nominal_voltage 7200;
 }

 object node:134 {
      name R2-12-47-2_node_70;
      phases ABCN;
      voltage_A 7200+0.0j;
      voltage_B -3600-6235j;
      voltage_C -3600+6235j;
      nominal_voltage 7200;
 }

 object node:135 {
      name R2-12-47-2_node_71;
      phases ABCN;
      voltage_A 7200+0.0j;
      voltage_B -3600-6235j;
      voltage_C -3600+6235j;
      nominal_voltage 7200;
 }

 object node:136 {
      name R2-12-47-2_node_72;
      phases ABCN;
      voltage_A 7200+0.0j;
      voltage_B -3600-6235j;
      voltage_C -3600+6235j;
      nominal_voltage 7200;
 }

 object node:137 {
      name R2-12-47-2_node_73;
      phases ABCN;
      voltage_A 7200+0.0j;
      voltage_B -3600-6235j;
      voltage_C -3600+6235j;
      nominal_voltage 7200;
 }

 object node:138 {
      name R2-12-47-2_node_74;
      phases ABCN;
      voltage_A 7200+0.0j;
      voltage_B -3600-6235j;
      voltage_C -3600+6235j;
      nominal_voltage 7200;
 }

 object node:139 {
      name R2-12-47-2_node_75;
      phases CN;
      voltage_C -3600+6235j;
      nominal_voltage 7200;
 }

 object node:140 {
      name R2-12-47-2_node_76;
      phases CN;
      voltage_C -3600+6235j;
      nominal_voltage 7200;
 }

 object node:141 {
      name R2-12-47-2_node_77;
      phases CN;
      voltage_C -3600+6235j;
      nominal_voltage 7200;
 }

 object node:142 {
      name R2-12-47-2_node_78;
      phases CN;
      voltage_C -3600+6235j;
      nominal_voltage 7200;
 }

 object node:143 {
      name R2-12-47-2_node_79;
      phases BN;
      voltage_B -3600-6235j;
      nominal_voltage 7200;
 }

 object node:144 {
      name R2-12-47-2_node_80;
      phases BN;
      voltage_B -3600-6235j;
      nominal_voltage 7200;
 }

 object node:145 {
      name R2-12-47-2_node_81;
      phases BN;
      voltage_B -3600-6235j;
      nominal_voltage 7200;
 }

 object node:146 {
      name R2-12-47-2_node_82;
      phases BN;
      voltage_B -3600-6235j;
      nominal_voltage 7200;
 }

 object node:147 {
      name R2-12-47-2_node_83;
      phases CN;
      voltage_C -3600+6235j;
      nominal_voltage 7200;
 }

 object node:148 {
      name R2-12-47-2_node_84;
      phases BN;
      voltage_B -3600-6235j;
      nominal_voltage 7200;
 }

 object node:149 {
      name R2-12-47-2_node_85;
      phases BN;
      voltage_B -3600-6235j;
      nominal_voltage 7200;
 }

 object node:150 {
      name R2-12-47-2_node_86;
      phases BN;
      voltage_B -3600-6235j;
      nominal_voltage 7200;
 }

 object node:151 {
      name R2-12-47-2_node_87;
      phases ABCN;
      voltage_A 7200+0.0j;
      voltage_B -3600-6235j;
      voltage_C -3600+6235j;
      nominal_voltage 7200;
 }

 object node:152 {
      name R2-12-47-2_node_88;
      phases ABCN;
      voltage_A 7200+0.0j;
      voltage_B -3600-6235j;
      voltage_C -3600+6235j;
      nominal_voltage 7200;
 }

 object node:153 {
      name R2-12-47-2_node_89;
      phases ABCN;
      voltage_A 7200+0.0j;
      voltage_B -3600-6235j;
      voltage_C -3600+6235j;
      nominal_voltage 7200;
 }

 object node:154 {
      name R2-12-47-2_node_90;
      phases ABCN;
      voltage_A 7200+0.0j;
      voltage_B -3600-6235j;
      voltage_C -3600+6235j;
      nominal_voltage 7200;
 }

 object node:155 {
      name R2-12-47-2_node_91;
      phases CN;
      voltage_C -3600+6235j;
      nominal_voltage 7200;
 }

 object node:156 {
      name R2-12-47-2_node_92;
      phases CN;
      voltage_C -3600+6235j;
      nominal_voltage 7200;
 }

 object node:157 {
      name R2-12-47-2_node_93;
      phases CN;
      voltage_C -3600+6235j;
      nominal_voltage 7200;
 }

 object node:158 {
      name R2-12-47-2_node_94;
      phases BN;
      voltage_B -3600-6235j;
      nominal_voltage 7200;
 }

 object node:159 {
      name R2-12-47-2_node_95;
      phases CN;
      voltage_C -3600+6235j;
      nominal_voltage 7200;
 }

 object node:160 {
      name R2-12-47-2_node_96;
      phases CN;
      voltage_C -3600+6235j;
      nominal_voltage 7200;
 }

 object node:161 {
      name R2-12-47-2_node_97;
      phases BN;
      voltage_B -3600-6235j;
      nominal_voltage 7200;
 }

 object node:162 {
      name R2-12-47-2_node_98;
      phases CN;
      voltage_C -3600+6235j;
      nominal_voltage 7200;
 }

 object node:163 {
      name R2-12-47-2_node_99;
      phases CN;
      voltage_C -3600+6235j;
      nominal_voltage 7200;
 }

 object node:164 {
      name R2-12-47-2_node_100;
      phases BN;
      voltage_B -3600-6235j;
      nominal_voltage 7200;
 }

 object node:165 {
      name R2-12-47-2_node_101;
      phases BN;
      voltage_B -3600-6235j;
      nominal_voltage 7200;
 }

 object node:166 {
      name R2-12-47-2_node_102;
      phases ABCN;
      voltage_A 7200+0.0j;
      voltage_B -3600-6235j;
      voltage_C -3600+6235j;
      nominal_voltage 7200;
 }

 object node:167 {
      name R2-12-47-2_node_103;
      phases ABCN;
      voltage_A 7200+0.0j;
      voltage_B -3600-6235j;
      voltage_C -3600+6235j;
      nominal_voltage 7200;
 }

 object node:168 {
      name R2-12-47-2_node_104;
      phases CN;
      voltage_C -3600+6235j;
      nominal_voltage 7200;
 }

 object node:169 {
      name R2-12-47-2_node_105;
      phases CN;
      voltage_C -3600+6235j;
      nominal_voltage 7200;
 }

 object node:170 {
      name R2-12-47-2_node_106;
      phases BN;
      voltage_B -3600-6235j;
      nominal_voltage 7200;
 }

 object node:171 {
      name R2-12-47-2_node_107;
      phases BN;
      voltage_B -3600-6235j;
      nominal_voltage 7200;
 }

 object node:172 {
      name R2-12-47-2_node_108;
      phases BN;
      voltage_B -3600-6235j;
      nominal_voltage 7200;
 }

 object node:173 {
      name R2-12-47-2_node_109;
      phases AN;
      voltage_A 7200+0.0j;
      nominal_voltage 7200;
 }

 object node:174 {
      name R2-12-47-2_node_110;
      phases ABCN;
      voltage_A 7200+0.0j;
      voltage_B -3600-6235j;
      voltage_C -3600+6235j;
      nominal_voltage 7200;
 }

 object node:175 {
      name R2-12-47-2_node_111;
      phases ABCN;
      voltage_A 7200+0.0j;
      voltage_B -3600-6235j;
      voltage_C -3600+6235j;
      nominal_voltage 7200;
 }

 object node:176 {
      name R2-12-47-2_node_112;
      phases ABCN;
      voltage_A 7200+0.0j;
      voltage_B -3600-6235j;
      voltage_C -3600+6235j;
      nominal_voltage 7200;
 }

 object node:177 {
      name R2-12-47-2_node_113;
      phases AN;
      voltage_A 7200+0.0j;
      nominal_voltage 7200;
 }

 object node:178 {
      name R2-12-47-2_node_114;
      phases AN;
      voltage_A 7200+0.0j;
      nominal_voltage 7200;
 }

 object node:179 {
      name R2-12-47-2_node_115;
      phases AN;
      voltage_A 7200+0.0j;
      nominal_voltage 7200;
 }

 object node:180 {
      name R2-12-47-2_node_116;
      phases AN;
      voltage_A 7200+0.0j;
      nominal_voltage 7200;
 }

 object node:181 {
      name R2-12-47-2_node_117;
      phases CN;
      voltage_C -3600+6235j;
      nominal_voltage 7200;
 }

 object node:182 {
      name R2-12-47-2_node_118;
      phases BN;
      voltage_B -3600-6235j;
      nominal_voltage 7200;
 }

 object node:183 {
      name R2-12-47-2_node_119;
      phases BN;
      voltage_B -3600-6235j;
      nominal_voltage 7200;
 }

 object node:184 {
      name R2-12-47-2_node_120;
      phases BN;
      voltage_B -3600-6235j;
      nominal_voltage 7200;
 }

 object node:185 {
      name R2-12-47-2_node_121;
      phases BN;
      voltage_B -3600-6235j;
      nominal_voltage 7200;
 }

 object node:186 {
      name R2-12-47-2_node_122;
      phases CN;
      voltage_C -3600+6235j;
      nominal_voltage 7200;
 }

 object node:187 {
      name R2-12-47-2_node_123;
      phases CN;
      voltage_C -3600+6235j;
      nominal_voltage 7200;
 }

 object node:188 {
      name R2-12-47-2_node_124;
      phases CN;
      voltage_C -3600+6235j;
      nominal_voltage 7200;
 }

 object node:189 {
      name R2-12-47-2_node_125;
      phases BN;
      voltage_B -3600-6235j;
      nominal_voltage 7200;
 }

 object node:190 {
      name R2-12-47-2_node_126;
      phases BN;
      voltage_B -3600-6235j;
      nominal_voltage 7200;
 }

 object node:191 {
      name R2-12-47-2_node_127;
      phases BN;
      voltage_B -3600-6235j;
      nominal_voltage 7200;
 }

 object node:192 {
      name R2-12-47-2_node_128;
      phases CN;
      voltage_C -3600+6235j;
      nominal_voltage 7200;
 }

 object node:193 {
      name R2-12-47-2_node_129;
      phases BN;
      voltage_B -3600-6235j;
      nominal_voltage 7200;
 }

 object node:194 {
      name R2-12-47-2_node_130;
      phases BN;
      voltage_B -3600-6235j;
      nominal_voltage 7200;
 }

 object node:195 {
      name R2-12-47-2_node_131;
      phases AN;
      voltage_A 7200+0.0j;
      nominal_voltage 7200;
 }

 object node:196 {
      name R2-12-47-2_node_132;
      phases AN;
      voltage_A 7200+0.0j;
      nominal_voltage 7200;
 }

 object node:197 {
      name R2-12-47-2_node_133;
      phases BN;
      voltage_B -3600-6235j;
      nominal_voltage 7200;
 }

 object node:198 {
      name R2-12-47-2_node_134;
      phases CN;
      voltage_C -3600+6235j;
      nominal_voltage 7200;
 }

 object node:199 {
      name R2-12-47-2_node_135;
      phases AN;
      voltage_A 7200+0.0j;
      nominal_voltage 7200;
 }

 object node:200 {
      name R2-12-47-2_node_136;
      phases AN;
      voltage_A 7200+0.0j;
      nominal_voltage 7200;
 }

 object node:201 {
      name R2-12-47-2_node_137;
      phases BN;
      voltage_B -3600-6235j;
      nominal_voltage 7200;
 }

 object node:202 {
      name R2-12-47-2_node_138;
      phases CN;
      voltage_C -3600+6235j;
      nominal_voltage 7200;
 }

 object node:203 {
      name R2-12-47-2_node_139;
      phases AN;
      voltage_A 7200+0.0j;
      nominal_voltage 7200;
 }

 object node:204 {
      name R2-12-47-2_node_140;
      phases BN;
      voltage_B -3600-6235j;
      nominal_voltage 7200;
 }

 object node:205 {
      name R2-12-47-2_node_141;
      phases CN;
      voltage_C -3600+6235j;
      nominal_voltage 7200;
 }

 object node:206 {
      name R2-12-47-2_node_142;
      phases ABCN;
      voltage_A 7200+0.0j;
      voltage_B -3600-6235j;
      voltage_C -3600+6235j;
      nominal_voltage 7200;
 }

 object node:207 {
      name R2-12-47-2_node_143;
      phases BN;
      voltage_B -3600-6235j;
      nominal_voltage 7200;
 }

 object node:208 {
      name R2-12-47-2_node_144;
      phases CN;
      voltage_C -3600+6235j;
      nominal_voltage 7200;
 }

 object node:209 {
      name R2-12-47-2_node_145;
      phases BN;
      voltage_B -3600-6235j;
      nominal_voltage 7200;
 }

 object node:210 {
      name R2-12-47-2_node_146;
      phases ABCN;
      voltage_A 7200+0.0j;
      voltage_B -3600-6235j;
      voltage_C -3600+6235j;
      nominal_voltage 7200;
 }

 object node:211 {
      name R2-12-47-2_node_147;
      phases CN;
      voltage_C -3600+6235j;
      nominal_voltage 7200;
 }

 object node:212 {
      name R2-12-47-2_node_148;
      phases CN;
      voltage_C -3600+6235j;
      nominal_voltage 7200;
 }

 object node:213 {
      name R2-12-47-2_node_149;
      phases BN;
      voltage_B -3600-6235j;
      nominal_voltage 7200;
 }

 object node:214 {
      name R2-12-47-2_node_150;
      phases CN;
      voltage_C -3600+6235j;
      nominal_voltage 7200;
 }

 object node:215 {
      name R2-12-47-2_node_151;
      phases BN;
      voltage_B -3600-6235j;
      nominal_voltage 7200;
 }

 object node:216 {
      name R2-12-47-2_node_152;
      phases ABCN;
      voltage_A 7200+0.0j;
      voltage_B -3600-6235j;
      voltage_C -3600+6235j;
      nominal_voltage 7200;
 }

 object node:217 {
      name R2-12-47-2_node_153;
      phases CN;
      voltage_C -3600+6235j;
      nominal_voltage 7200;
 }

 object node:218 {
      name R2-12-47-2_node_154;
      phases AN;
      voltage_A 7200+0.0j;
      nominal_voltage 7200;
 }

 object node:219 {
      name R2-12-47-2_node_155;
      phases BN;
      voltage_B -3600-6235j;
      nominal_voltage 7200;
 }

 object node:220 {
      name R2-12-47-2_node_156;
      phases CN;
      voltage_C -3600+6235j;
      nominal_voltage 7200;
 }

 object node:221 {
      name R2-12-47-2_node_157;
      phases BN;
      voltage_B -3600-6235j;
      nominal_voltage 7200;
 }

 object node:222 {
      name R2-12-47-2_node_158;
      phases BN;
      voltage_B -3600-6235j;
      nominal_voltage 7200;
 }

 object node:223 {
      name R2-12-47-2_node_159;
      phases CN;
      voltage_C -3600+6235j;
      nominal_voltage 7200;
 }

 object node:224 {
      name R2-12-47-2_node_160;
      phases CN;
      voltage_C -3600+6235j;
      nominal_voltage 7200;
 }

 object node:225 {
      name R2-12-47-2_node_161;
      phases CN;
      voltage_C -3600+6235j;
      nominal_voltage 7200;
 }

 object node:226 {
      name R2-12-47-2_node_162;
      phases BN;
      voltage_B -3600-6235j;
      nominal_voltage 7200;
 }

 object node:227 {
      name R2-12-47-2_node_163;
      phases AN;
      voltage_A 7200+0.0j;
      nominal_voltage 7200;
 }

 object node:228 {
      name R2-12-47-2_node_164;
      phases BN;
      voltage_B -3600-6235j;
      nominal_voltage 7200;
 }

 object node:229 {
      name R2-12-47-2_node_165;
      phases BN;
      voltage_B -3600-6235j;
      nominal_voltage 7200;
 }

 object node:230 {
      name R2-12-47-2_node_166;
      phases CN;
      voltage_C -3600+6235j;
      nominal_voltage 7200;
 }

 object node:231 {
      name R2-12-47-2_node_167;
      phases CN;
      voltage_C -3600+6235j;
      nominal_voltage 7200;
 }

 object node:232 {
      name R2-12-47-2_node_168;
      phases ABCN;
      voltage_A 7200+0.0j;
      voltage_B -3600-6235j;
      voltage_C -3600+6235j;
      nominal_voltage 7200;
 }

 object node:233 {
      name R2-12-47-2_node_169;
      phases CN;
      voltage_C -3600+6235j;
      nominal_voltage 7200;
 }

 object node:234 {
      name R2-12-47-2_node_170;
      phases CN;
      voltage_C -3600+6235j;
      nominal_voltage 7200;
 }

 object node:235 {
      name R2-12-47-2_node_171;
      phases BN;
      voltage_B -3600-6235j;
      nominal_voltage 7200;
 }

 object node:236 {
      name R2-12-47-2_node_172;
      phases AN;
      voltage_A 7200+0.0j;
      nominal_voltage 7200;
 }

 object node:237 {
      name R2-12-47-2_node_173;
      phases BN;
      voltage_B -3600-6235j;
      nominal_voltage 7200;
 }

 object node:238 {
      name R2-12-47-2_node_174;
      phases AN;
      voltage_A 7200+0.0j;
      nominal_voltage 7200;
 }

 object node:239 {
      name R2-12-47-2_node_175;
      phases AN;
      voltage_A 7200+0.0j;
      nominal_voltage 7200;
 }

 object node:240 {
      name R2-12-47-2_node_176;
      phases ABCN;
      voltage_A 7200+0.0j;
      voltage_B -3600-6235j;
      voltage_C -3600+6235j;
      nominal_voltage 7200;
 }

 object node:241 {
      name R2-12-47-2_node_177;
      phases CN;
      voltage_C -3600+6235j;
      nominal_voltage 7200;
 }

 object node:242 {
      name R2-12-47-2_node_178;
      phases CN;
      voltage_C -3600+6235j;
      nominal_voltage 7200;
 }

 object node:243 {
      name R2-12-47-2_node_179;
      phases CN;
      voltage_C -3600+6235j;
      nominal_voltage 7200;
 }

 object node:244 {
      name R2-12-47-2_node_180;
      phases BN;
      voltage_B -3600-6235j;
      nominal_voltage 7200;
 }

 object node:245 {
      name R2-12-47-2_node_181;
      phases BN;
      voltage_B -3600-6235j;
      nominal_voltage 7200;
 }

 object node:246 {
      name R2-12-47-2_node_182;
      phases CN;
      voltage_C -3600+6235j;
      nominal_voltage 7200;
 }

 object node:247 {
      name R2-12-47-2_node_183;
      phases ABCN;
      voltage_A 7200+0.0j;
      voltage_B -3600-6235j;
      voltage_C -3600+6235j;
      nominal_voltage 7200;
 }

 object node:248 {
      name R2-12-47-2_node_184;
      phases ABCN;
      voltage_A 7200+0.0j;
      voltage_B -3600-6235j;
      voltage_C -3600+6235j;
      nominal_voltage 7200;
 }

 object node:249 {
      name R2-12-47-2_node_185;
      phases CN;
      voltage_C -3600+6235j;
      nominal_voltage 7200;
 }

 object node:250 {
      name R2-12-47-2_node_186;
      phases AN;
      voltage_A 7200+0.0j;
      nominal_voltage 7200;
 }

 object node:251 {
      name R2-12-47-2_node_187;
      phases ABCN;
      voltage_A 7200+0.0j;
      voltage_B -3600-6235j;
      voltage_C -3600+6235j;
      nominal_voltage 7200;
 }

 object node:252 {
      name R2-12-47-2_node_188;
      phases AN;
      voltage_A 7200+0.0j;
      nominal_voltage 7200;
 }

 object node:253 {
      name R2-12-47-2_node_189;
      phases CN;
      voltage_C -3600+6235j;
      nominal_voltage 7200;
 }

 object node:254 {
      name R2-12-47-2_node_190;
      phases CN;
      voltage_C -3600+6235j;
      nominal_voltage 7200;
 }

 object node:255 {
      name R2-12-47-2_node_191;
      phases AN;
      voltage_A 7200+0.0j;
      nominal_voltage 7200;
 }

 object node:256 {
      name R2-12-47-2_node_192;
      phases CN;
      voltage_C -3600+6235j;
      nominal_voltage 7200;
 }

 object node:257 {
      name R2-12-47-2_node_193;
      phases CN;
      voltage_C -3600+6235j;
      nominal_voltage 7200;
 }

 object node:258 {
      name R2-12-47-2_node_194;
      phases AN;
      voltage_A 7200+0.0j;
      nominal_voltage 7200;
 }

 object node:259 {
      name R2-12-47-2_node_195;
      phases AN;
      voltage_A 7200+0.0j;
      nominal_voltage 7200;
 }

 object node:260 {
      name R2-12-47-2_node_196;
      phases ABCN;
      voltage_A 7200+0.0j;
      voltage_B -3600-6235j;
      voltage_C -3600+6235j;
      nominal_voltage 7200;
 }

 object node:261 {
      name R2-12-47-2_node_197;
      phases CN;
      voltage_C -3600+6235j;
      nominal_voltage 7200;
 }

 object node:262 {
      name R2-12-47-2_node_198;
      phases AN;
      voltage_A 7200+0.0j;
      nominal_voltage 7200;
 }

 object node:263 {
      name R2-12-47-2_node_199;
      phases CN;
      voltage_C -3600+6235j;
      nominal_voltage 7200;
 }

 object node:264 {
      name R2-12-47-2_node_200;
      phases CN;
      voltage_C -3600+6235j;
      nominal_voltage 7200;
 }

 object node:265 {
      name R2-12-47-2_node_201;
      phases AN;
      voltage_A 7200+0.0j;
      nominal_voltage 7200;
 }

 object node:266 {
      name R2-12-47-2_node_202;
      phases AN;
      voltage_A 7200+0.0j;
      nominal_voltage 7200;
 }

 object node:267 {
      name R2-12-47-2_node_203;
      phases CN;
      voltage_C -3600+6235j;
      nominal_voltage 7200;
 }

 object node:268 {
      name R2-12-47-2_node_204;
      phases CN;
      voltage_C -3600+6235j;
      nominal_voltage 7200;
 }

 object node:269 {
      name R2-12-47-2_node_205;
      phases AN;
      voltage_A 7200+0.0j;
      nominal_voltage 7200;
 }

 object node:270 {
      name R2-12-47-2_node_206;
      phases AN;
      voltage_A 7200+0.0j;
      nominal_voltage 7200;
 }

 object node:271 {
      name R2-12-47-2_node_207;
      phases BN;
      voltage_B -3600-6235j;
      nominal_voltage 7200;
 }

 object node:272 {
      name R2-12-47-2_node_208;
      phases AN;
      voltage_A 7200+0.0j;
      nominal_voltage 7200;
 }

 object node:273 {
      name R2-12-47-2_node_209;
      phases AN;
      voltage_A 7200+0.0j;
      nominal_voltage 7200;
 }

 object node:274 {
      name R2-12-47-2_node_210;
      phases AN;
      voltage_A 7200+0.0j;
      nominal_voltage 7200;
 }

 object node:275 {
      name R2-12-47-2_node_211;
      phases BN;
      voltage_B -3600-6235j;
      nominal_voltage 7200;
 }

 object node:276 {
      name R2-12-47-2_node_212;
      phases CN;
      voltage_C -3600+6235j;
      nominal_voltage 7200;
 }

 object node:277 {
      name R2-12-47-2_node_213;
      phases CN;
      voltage_C -3600+6235j;
      nominal_voltage 7200;
 }

 object node:278 {
      name R2-12-47-2_node_214;
      phases BN;
      voltage_B -3600-6235j;
      nominal_voltage 7200;
 }

 object node:279 {
      name R2-12-47-2_node_215;
      phases CN;
      voltage_C -3600+6235j;
      nominal_voltage 7200;
 }

 object node:280 {
      name R2-12-47-2_node_216;
      phases BN;
      voltage_B -3600-6235j;
      nominal_voltage 7200;
 }

 object node:281 {
      name R2-12-47-2_node_217;
      phases ABCN;
      voltage_A 7200+0.0j;
      voltage_B -3600-6235j;
      voltage_C -3600+6235j;
      nominal_voltage 7200;
 }

 object node:282 {
      name R2-12-47-2_node_218;
      phases ABCN;
      voltage_A 7200+0.0j;
      voltage_B -3600-6235j;
      voltage_C -3600+6235j;
      nominal_voltage 7200;
 }

 object node:283 {
      name R2-12-47-2_node_219;
      phases ABCN;
      voltage_A 7200+0.0j;
      voltage_B -3600-6235j;
      voltage_C -3600+6235j;
      nominal_voltage 7200;
 }

 object node:284 {
      name R2-12-47-2_node_220;
      phases AN;
      voltage_A 7200+0.0j;
      nominal_voltage 7200;
 }

 object node:285 {
      name R2-12-47-2_node_221;
      phases ABCN;
      voltage_A 7200+0.0j;
      voltage_B -3600-6235j;
      voltage_C -3600+6235j;
      nominal_voltage 7200;
 }

 object node:286 {
      name R2-12-47-2_node_222;
      phases ABCN;
      voltage_A 7200+0.0j;
      voltage_B -3600-6235j;
      voltage_C -3600+6235j;
      nominal_voltage 7200;
 }

 object node:287 {
      name R2-12-47-2_node_223;
      phases ABCN;
      voltage_A 7200+0.0j;
      voltage_B -3600-6235j;
      voltage_C -3600+6235j;
      nominal_voltage 7200;
 }

 object node:288 {
      name R2-12-47-2_node_224;
      phases AN;
      voltage_A 7200+0.0j;
      nominal_voltage 7200;
 }

 object node:289 {
      name R2-12-47-2_node_225;
      phases CN;
      voltage_C -3600+6235j;
      nominal_voltage 7200;
 }

 object node:290 {
      name R2-12-47-2_node_226;
      phases BN;
      voltage_B -3600-6235j;
      nominal_voltage 7200;
 }

 object node:291 {
      name R2-12-47-2_node_227;
      phases AN;
      voltage_A 7200+0.0j;
      nominal_voltage 7200;
 }

 object node:292 {
      name R2-12-47-2_node_228;
      phases BN;
      voltage_B -3600-6235j;
      nominal_voltage 7200;
 }

 object node:293 {
      name R2-12-47-2_node_229;
      phases CN;
      voltage_C -3600+6235j;
      nominal_voltage 7200;
 }

 object node:294 {
      name R2-12-47-2_node_230;
      phases AN;
      voltage_A 7200+0.0j;
      nominal_voltage 7200;
 }

 object node:295 {
      name R2-12-47-2_node_231;
      phases BN;
      voltage_B -3600-6235j;
      nominal_voltage 7200;
 }

 object node:296 {
      name R2-12-47-2_node_232;
      phases AN;
      voltage_A 7200+0.0j;
...